  **********************************************************
                     Welcome to XBeach
 
              version 1.23.5526 XBeachX release
               date09-11-2018 11:14:26
     URL:http://svn.oss.deltares.nl/repos/xbeach/trunk/
  **********************************************************
 
  Simulation started: YYYYMMDD    hh:mm:ss     time zone (UTC)
                      20230924  15:06:27     +0200
 
  General Input Module
  Reading input parameters:
   XBeach reading fromparams.txt
  --------------------------------
  Physical processes:
                 wavemodel =surfbeat
                    cyclic =0 (no record found, default value used)
                     swave =1 (no record found, default value used)
                single_dir =0 (no record found, default value used)
                     lwave =1 (no record found, default value used)
                      flow =1 (no record found, default value used)
                  sedtrans =1 (no record found, default value used)
                morphology =1 (no record found, default value used)
               avalanching =1 (no record found, default value used)
                    gwflow =0 (no record found, default value used)
                     ships =0 (no record found, default value used)
                vegetation =1
                  setbathy =0 (no record found, default value used)
                 viscosity =1 (no record found, default value used)
                 advection =1 (no record found, default value used)
                      wind =1 (no record found, default value used)
  --------------------------------
  Grid parameters:
                  gridform =xbeach (no record found, default value used)
                      xori =.0000
                      yori =.0000 (no record found, default value used)
                      alfa =.0000
                        nx =524
                        ny =0
                    posdwn =-1.0000
                   depfile =bed.dep
                     vardx =1
                        dx =-1.0000 (no record found, default value used)
                        dy =-1.0000 (no record found, default value used)
                     xfile =xgrid.grd
                     yfile = None specified
                        nz =1 (no record found, default value used)
                  thetamin =-90.0000
                  thetamax =90.0000
                 thetanaut =0 (no record found, default value used)
                    dtheta =10.0000
  --------------------------------
  Model time parameters:
                       CFL =.7000 (no record found, default value used)
                     dtset =.0000 (no record found, default value used)
                     tstop =2700.0000
                  maxdtfac =50.0000 (no record found, default value used)
  --------------------------------
  Physical constants:
                       rho =1025.0000 (no record found, default value used)
                         g =9.8100 (no record found, default value used)
                depthscale =1.0000 (no record found, default value used)
  --------------------------------
  Initial conditions:
                zsinitfile = None specified
  --------------------------------
  Wave boundary condition parameters:
                   wbctype =parametric
                    bcfile =jonswap.txt
                     taper =100.0000 (no record found, default value used)
                      nmax =.8000 (no record found, default value used)
               lateralwave =neumann (no record found, default value used)
  --------------------------------
  Wave-spectrum boundary condition parameters:
                    random =1 (no record found, default value used)
                   fcutoff =.0000 (no record found, default value used)
                   trepfac =.0100 (no record found, default value used)
                   sprdthr =.0800 (no record found, default value used)
                Tm01switch =0 (no record found, default value used)
                        rt =2700.0000 (no record found, default value used)
                      dtbc =1.0000 (no record found, default value used)
              nspectrumloc =1 (no record found, default value used)
  --------------------------------
  Flow boundary condition parameters:
                     front =abs_1d (no record found, default value used)
                      left =neumann (no record found, default value used)
                     right =neumann (no record found, default value used)
                      back =abs_1d (no record found, default value used)
                       ARC =1 (no record found, default value used)
                     order =2.0000 (no record found, default value used)
                  highcomp =0 (no record found, default value used)
                  freewave =0 (no record found, default value used)
                      epsi =-1.0000 (no record found, default value used)
                  tidetype =velocity (no record found, default value used)
  --------------------------------
  Tide boundary conditions:
                   tideloc =0 (no record found, default value used)
                       zs0 =3.5000
  --------------------------------
  Discharge boundary conditions:
            disch_loc_file = None specified
     disch_timeseries_file = None specified
                ndischarge =0 (no record found, default value used)
               ntdischarge =0 (no record found, default value used)
                      beta =.1000 (no record found, default value used)
  --------------------------------
  Wave breaking parameters:
                     break =roelvink2 (no record found, default value used)
                     gamma =.5500 (no record found, default value used)
                    gammax =2.0000 (no record found, default value used)
                     alpha =1.0000 (no record found, default value used)
                         n =10.0000 (no record found, default value used)
                     delta =.0000 (no record found, default value used)
                        fw =.0000 (no record found, default value used)
                    fwfile = None specified
                  fwcutoff =1000.0000 (no record found, default value used)
              breakerdelay =1.0000 (no record found, default value used)
  --------------------------------
  Roller parameters:
                    roller =1 (no record found, default value used)
                       rfb =0 (no record found, default value used)
  --------------------------------
  Wave-current interaction parameters:
                       wci =0 (no record found, default value used)
                      hwci =.1000 (no record found, default value used)
                   hwcimax =100.0000 (no record found, default value used)
                      cats =4.0000 (no record found, default value used)
  --------------------------------
  Flow parameters:
               bedfriction =chezy (no record found, default value used)
               bedfricfile = None specified
               bedfriccoef =55.0000 (no record found, default value used)
                     droot =.5000 (no record found, default value used)
                     dstem =.5000 (no record found, default value used)
                     maxcf =.0400 (no record found, default value used)
                       nuh =.1000 (no record found, default value used)
                    nuhfac =1.0000 (no record found, default value used)
                      smag =1 (no record found, default value used)
  --------------------------------
  Coriolis force parameters:
                    wearth =.0417 (no record found, default value used)
                       lat =.0000 (no record found, default value used)
  --------------------------------
  Wind parameters:
                      rhoa =1.2500 (no record found, default value used)
                        Cd =.0020 (no record found, default value used)
                  windfile = None specified
                     windv =.0000 (no record found, default value used)
                    windth =270.0000 (no record found, default value used)
  --------------------------------
  Sediment transport parameters:
                      form =vanthiel_vanrijn (no record found, default value use
 d)
                  waveform =vanthiel (no record found, default value used)
                       sws =1 (no record found, default value used)
                       lws =1 (no record found, default value used)
                     BRfac =1.0000 (no record found, default value used)
                     facua =.1000 (no record found, default value used)
                     facSk =.1000 (no record found, default value used)
                     facAs =.1000 (no record found, default value used)
                     Tbfac =1.0000 (no record found, default value used)
                      turb =bore_averaged (no record found, default value used)
                   turbadv =none (no record found, default value used)
                       sus =1 (no record found, default value used)
                       bed =1 (no record found, default value used)
                      bulk =0 (no record found, default value used)
                     facsl =.1500 (no record found, default value used)
                        z0 =.0060 (no record found, default value used)
                      smax =-1.0000 (no record found, default value used)
               bdslpeffmag =roelvink_total (no record found, default value used)
               bdslpeffini =none (no record found, default value used)
               bdslpeffdir =none (no record found, default value used)
               reposeangle =30.0000 (no record found, default value used)
                     tsfac =.1000 (no record found, default value used)
                     Tsmin =.5000 (no record found, default value used)
                     facDc =1.0000 (no record found, default value used)
                       lwt =0 (no record found, default value used)
                     betad =1.0000 (no record found, default value used)
                fallvelred =0 (no record found, default value used)
                 dilatancy =0 (no record found, default value used)
  --------------------------------
  Bed composition parameters:
                       ngd =1 (no record found, default value used)
                        nd =3 (no record found, default value used)
                       por =.4000 (no record found, default value used)
   D50 =.0002 (no record found, default value used)
   D90 =.0003 (no record found, default value used)
                      rhos =2650.0000 (no record found, default value used)
                       dzg =.1000 (no record found, default value used)
                      dzg1 =.1000 (no record found, default value used)
                      dzg2 =.1000 (no record found, default value used)
                      dzg3 =.1000 (no record found, default value used)
   sedcal =1.0000 (no record found, default value used)
   ucrcal =1.0000 (no record found, default value used)
  --------------------------------
  Morphology parameters:
                    morfac =1.0000 (no record found, default value used)
                 morfacopt =1 (no record found, default value used)
                  morstart =.0000 (no record found, default value used)
                   morstop =2700.0000 (no record found, default value used)
                    wetslp =.3000 (no record found, default value used)
                    dryslp =1.0000 (no record found, default value used)
                   hswitch =.1000 (no record found, default value used)
                     dzmax =.0500 (no record found, default value used)
                    struct =0 (no record found, default value used)
  --------------------------------
  Output variables:
                   timings =1 (no record found, default value used)
                    tunits = None specified
                    tstart =900.0000
                      tint =1.0000 (no record found, default value used)
                  tsglobal = None specified
                     tintg =10.0000
                  tspoints = None specified
                     tintp =1.0000 (no record found, default value used)
                    tsmean = None specified
                     tintm =1800.0000
                nglobalvar =7
   nglobalvar: Will generate global output for variable:H
   nglobalvar: Will generate global output for variable:zs
   nglobalvar: Will generate global output for variable:vegtype
   nglobalvar: Will generate global output for variable:k
   nglobalvar: Will generate global output for variable:sigt
   nglobalvar: Will generate global output for variable:sigm
   nglobalvar: Will generate global output for variable:wm
                   npoints =0 (no record found, default value used)
                  nrugauge =0 (no record found, default value used)
                 npointvar =0 (no record found, default value used)
                 nrugdepth =1 (no record found, default value used)
   rugdepth =.0000 (no record found, default value used)
                  nmeanvar =7
   nmeanvar: Will generate mean, min, max and variance output for variable:H
   nmeanvar: Will generate mean, min, max and variance output for variable:zs
   nmeanvar: Will generate mean, min, max and variance output for variable:zb
   nmeanvar: Will generate mean, min, max and variance output for variable:k
   nmeanvar: Will generate mean, min, max and variance output for variable:sigt
   nmeanvar: Will generate mean, min, max and variance output for variable:sigm
   nmeanvar: Will generate mean, min, max and variance output for variable:wm
              outputformat =netcdf
           outputprecision =double (no record found, default value used)
                ncfilename = None specified
  netcdf output to:xboutput.nc
              remdryoutput =1 (no record found, default value used)
  --------------------------------
  Output projection:
                projection = None specified
                    rotate =1 (no record found, default value used)
  --------------------------------
  Vegetation parameters:
                veggiefile =veggiefile.txt
             veggiemapfile =vegpatch.txt
                      Trep =1.0000 (no record found, default value used)
                porcanflow =0 (no record found, default value used)
  --------------------------------
  Wave numerics parameters:
                    scheme =warmbeam (no record found, default value used)
                    snells =0 (no record found, default value used)
  --------------------------------
  Flow numerics parameters:
                       eps =.0050 (no record found, default value used)
                    eps_sd =.5000 (no record found, default value used)
                      umin =.0000 (no record found, default value used)
                      hmin =.2000 (no record found, default value used)
                  secorder =0 (no record found, default value used)
  --------------------------------
  Sediment transport numerics parameters:
                  thetanum =1.0000 (no record found, default value used)
                      cmax =.1000 (no record found, default value used)
  --------------------------------
  Bed update numerics parameters:
                   frac_dz =.7000 (no record found, default value used)
                    nd_var =2 (no record found, default value used)
                     split =1.0100 (no record found, default value used)
                     merge =.0100 (no record found, default value used)
  --------------------------------
  Finished reading input parameters
  --------------------------------
  ------------------------------------
  Building Grid and Bathymetry
  ------------------------------------
  Initializing .....
  --------------------------------
  Initializing spectral wave boundary conditions
  --------------------------------
  --------------------------------
  Initializing vegetation input settings
   XBeach reading fromsaltmarsh1.txt
                      nsec =1
                        ah =.3000
                        bv =.0050
                         N =100.0000
                        Cd =.5000
  --------------------------------
  Finished reading vegetation input...
  NetCDF outputformat
   Creating netcdf variable:H
   Creating netcdf variable:zs
   Creating netcdf variable:vegtype
   Creating netcdf variable:k
   Creating netcdf variable:sigt
   Creating netcdf variable:sigm
   Creating netcdf variable:wm
   Creating netcdf variable:H_mean
   Creating netcdf variable:H_var
   Creating netcdf variable:H_min
   Creating netcdf variable:H_max
   Creating netcdf variable:zs_mean
   Creating netcdf variable:zs_var
   Creating netcdf variable:zs_min
   Creating netcdf variable:zs_max
   Creating netcdf variable:zb_mean
   Creating netcdf variable:zb_var
   Creating netcdf variable:zb_min
   Creating netcdf variable:zb_max
   Creating netcdf variable:k_mean
   Creating netcdf variable:k_var
   Creating netcdf variable:k_min
   Creating netcdf variable:k_max
   Creating netcdf variable:sigt_mean
   Creating netcdf variable:sigt_var
   Creating netcdf variable:sigt_min
   Creating netcdf variable:sigt_max
   Creating netcdf variable:sigm_mean
   Creating netcdf variable:sigm_var
   Creating netcdf variable:sigm_min
   Creating netcdf variable:sigm_max
   Creating netcdf variable:wm_mean
   Creating netcdf variable:wm_var
   Creating netcdf variable:wm_min
   Creating netcdf variable:wm_max
  Writing file definition.
  Setting up boundary conditions
  --------------------------------
  Calculating spectral wave boundary conditions
  --------------------------------
  Reading spectrum at location1
   waveparams: Reading from:jonswap.txt ...
   XBeach reading fromjonswap.txt
                    nmodal =1 (no record found, default value used)
                       Hm0 =1.2500
                        fp =.2222
                  gammajsp =3.3000
                         s =10.0000
   tma =0 (no record found, default value used)
                   mainang =270.0000
                      fnyq =1.0000
                       dfj =.0050 (no record found, default value used)
  Interpreting spectrum at location1
  Values calculated from interpolated spectrum:
  Hm0       =1.25 m
  Trep      =4.12 s
  Mean dir  =270.43 degN
  Overall Trep from all spectra calculated:4.12 s
  Calculating Fourier components
  5.1% done
  10.1% done
  15.0% done
  20.0% done
  25.1% done
  30.1% done
  35.0% done
  40.0% done
  45.1% done
  50.1% done
  55.0% done
  60.0% done
  65.1% done
  70.1% done
  75.0% done
  80.0% done
  85.1% done
  90.1% done
  95.0% done
  100.0% done
  Wave energy outside computational domain at offshore boundary:.2%
  Calculating short wave time series for theta bin1 of18
  Calculating short wave time series for theta bin2 of18
  Calculating short wave time series for theta bin3 of18
  Calculating short wave time series for theta bin4 of18
  Calculating short wave time series for theta bin5 of18
  Calculating short wave time series for theta bin6 of18
  Calculating short wave time series for theta bin7 of18
  Calculating short wave time series for theta bin8 of18
  Calculating short wave time series for theta bin9 of18
  Calculating short wave time series for theta bin10 of18
  Calculating short wave time series for theta bin11 of18
  Calculating short wave time series for theta bin12 of18
  Calculating short wave time series for theta bin13 of18
  Calculating short wave time series for theta bin14 of18
  Calculating short wave time series for theta bin15 of18
  Calculating short wave time series for theta bin16 of18
  Calculating short wave time series for theta bin17 of18
  Calculating short wave time series for theta bin18 of18
 Calculating wave energy envelope at boundary.
  100.0% done
  Wave bin1 contains.00% of total energy
  Wave bin2 contains.00% of total energy
  Wave bin3 contains.19% of total energy
  Wave bin4 contains.55% of total energy
  Wave bin5 contains2.94% of total energy
  Wave bin6 contains8.70% of total energy
  Wave bin7 contains8.40% of total energy
  Wave bin8 contains15.60% of total energy
  Wave bin9 contains16.07% of total energy
  Wave bin10 contains14.54% of total energy
  Wave bin11 contains13.68% of total energy
  Wave bin12 contains8.60% of total energy
  Wave bin13 contains7.42% of total energy
  Wave bin14 contains1.49% of total energy
  Wave bin15 contains.34% of total energy
  Wave bin16 contains1.17% of total energy
  Wave bin17 contains.32% of total energy
  Wave bin18 contains.00% of total energy
   Writing wave energy toE_reuse.bcf ...
  file done
  Calculating primary wave interaction
  5.2% done
  10.1% done
  15.1% done
  20.0% done
  25.0% done
  30.2% done
  35.1% done
  40.1% done
  45.0% done
  50.0% done
  55.2% done
  60.1% done
  65.1% done
  70.0% done
  75.0% done
  80.2% done
  85.1% done
  90.1% done
  95.0% done
  100.0% done
  Calculating flux at boundary
  100.0% done
   Writing long wave mass flux toq_reuse.bcf ...
  file done
  --------------------------------
  Spectral wave boundary conditions complete
  --------------------------------
  Boundary conditions complete, starting computation
  Simulation 11.4 percent complete. Average dt  0.415 seconds
  Time remaining 39 seconds
  Simulation 31.9 percent complete. Average dt  0.414 seconds
  Time remaining 19 seconds
  Simulation 48.5 percent complete. Average dt  0.401 seconds
  Time remaining 16 seconds
  Simulation 68.0 percent complete. Average dt  0.400 seconds
  Time remaining  9 seconds
  Simulation 85.5 percent complete. Average dt  0.400 seconds
  Time remaining  4 seconds
  Simulation 99.4 percent complete. Average dt  0.400 seconds
  Time remaining  0 seconds
   Duration   :   28.9218750000000      seconds
   Timesteps  :        6672
   Average dt :  0.404676258992806      seconds
   Unit speed :  8.256787427201097E-006 seconds/1
  End of program xbeach
